<edges>
    <edge id="edge_north_in" from="junction_north" to="junction_center" priority="2" numLanes="2" speed="13.89"/>
    <edge id="edge_north_out" from="junction_center" to="junction_north" priority="2" numLanes="2" speed="13.89"/>

    <edge id="edge_south_in" from="junction_south" to="junction_center" priority="2" numLanes="2" speed="13.89"/>
    <edge id="edge_south_out" from="junction_center" to="junction_south" priority="2" numLanes="2" speed="13.89"/>

    <edge id="edge_east_in" from="junction_east" to="junction_center" priority="2" numLanes="2" speed="13.89"/>
    <edge id="edge_east_out" from="junction_center" to="junction_east" priority="2" numLanes="2" speed="13.89"/>

    <edge id="edge_west_in" from="junction_west" to="junction_center" priority="2" numLanes="2" speed="13.89"/>
    <edge id="edge_west_out" from="junction_center" to="junction_west" priority="2" numLanes="2" speed="13.89"/>
</edges>